1
    SWAT Mar 4 2014    VER 2012/Rev 622                                                                  0/ 0/   0      0: 0: 0

    General Input/Output section (file.cio):                                        
    9/2/2015 12:00:00 AM ARCGIS-SWAT interface AV                                   
                                                                                    
         Number of years in run:   35
         Area of watershed:   106124.000 km2
         Random number generator cycles: 0, use default numbers

         Initial random number seed: wet/dry day prob        748932582
         Initial random number seed: radiation              1948832765
         Initial random number seed: precipitation           857034417
         Initial random number seed: 0.5 hr rainfall          67377721
         Initial random number seed: wind speed              366304404
         Initial random number seed: irrigation             1094585182
         Initial random number seed: relative humidity      1767585417
         Initial random number seed: max temperature         608439319
         Initial random number seed: min temperature         592757081

         Precipitation data used in run:
          Multiple gages read for watershed
             Daily rainfall data used

         Temperature data used in run:
          Multiple gages read for watershed

         PET method used: Penman-Monteith

         Rainfall/Runoff/Routing Option:
          Daily rainfall data
          Runoff estimated with curve number method
          Daily stream routing
           Variable Storage routing method
           Channel dimensions remain constant
           Subbasin algae/CBOD loadings not modeled
           In-stream nutrient transformations modeled using QUAL2E equations

         Subbasin Input Summary:
          Sub Latitude  Elev(m) #HRUs Ponds Elevbnds Wetlnd
            1    36.71   781.64    24                   
            2    36.71   678.08    40                   
            3    36.71   136.58    88                   
            4    36.71   471.80    68                   
            5    36.71   473.43    44                   
            6    36.71   544.07    80                   
            7    36.71   134.20    72                   
            8    36.71   941.69    64                   
            9    36.71   731.07    32                   
           10    36.71   518.13   100                   
           11    36.71   408.07    64                   
           12    36.71   586.65    68                   
           13    36.71   696.61    48                   
           14    36.71   149.94    84                   
           15    36.71   351.18    72                   
           16    36.71   340.91   100                   
           17    36.71   282.12    55                   
           18    36.71   510.37    60                   
           19    36.71   333.76   112                   
           20    36.71   277.71   100                   
           21    36.71   488.21    60                   
           22    36.71   314.82    84                   
           23    36.71   980.66    60                   
           24    36.71   431.53   100                   
           25    36.81   178.04    56                   
           26    36.81   416.43   100                   
           27    36.81   792.12    64                   
           28    36.81   349.04    84                   
           29    36.81   221.25    76                   
           30    36.81  1042.15    40                   
           31    36.81   904.58    36                   
           32    36.81   687.37    60                   
           33    36.81   235.85    60                   
           34    36.81   310.77    56                   
           35    36.81   261.36   104                   
           36    36.81   163.81   112                   
           37    36.81   364.18    92                   
           38    36.81   238.58    88                   
           39    36.81   696.39    64                   
           40    36.81   270.88    68                   
           41    36.81   357.54   108                   
           42    36.81   327.49    84                   
           43    36.81   308.38   112                   
           44    36.81   628.33    36                   
           45    36.81   417.77    92                   
           46    36.81   427.47    48                   
           47    36.81   371.37    84                   
           48    36.81   261.10    96                   
           49    36.81   142.44   120                   
           50    36.81   183.89   100                   
           51    36.81   221.14   104                   
           52    36.81   247.98    72                   
           53    36.81   244.93   112                   
           54    36.81   216.12    84                   
           55    36.81   326.22    88                   

         HRU Input Summary Table 1:
          Sub   HRU   Area(ha) Slope SlpLgth(m) Ovrlnd_N CondII_CN TimeConc(hr) ESCO EPCO
            1      1     222.93 0.037      91.46    0.100     77.00        0.590 0.95 1.00
            1      2   38079.97 0.380       9.15    0.100     77.00        2.354 0.95 1.00
            1      3      34.35 0.015     121.95    0.100     77.00        0.884 0.95 1.00
            1      4      10.57 0.007     121.95    0.100     77.00        1.106 0.95 1.00
            1      5      44.92 0.006     121.95    0.100     66.00        1.163 0.95 1.00
            1      6     534.39 0.037      91.46    0.100     66.00        0.619 0.95 1.00
            1      7      93.07 0.015     121.95    0.100     66.00        0.891 0.95 1.00
            1      8   43064.20 0.344       9.15    0.100     66.00        2.616 0.95 1.00
            1      9   30114.62 0.229      15.24    0.100     66.00        1.971 0.95 1.00
            1     10    1447.98 0.036      91.46    0.100     66.00        0.699 0.95 1.00
            1     11     284.27 0.015     121.95    0.100     66.00        0.910 0.95 1.00
            1     12     144.79 0.006     121.95    0.100     66.00        1.174 0.95 1.00
            1     13    1435.04 0.036      91.46    0.100     97.22        0.698 0.95 1.00
            1     14     298.25 0.015     121.95    0.100     97.22        0.912 0.95 1.00
            1     15    6886.16 0.130      24.39    0.100     97.22        0.686 0.95 1.00
            1     16     121.63 0.006     121.95    0.100     97.22        1.172 0.95 1.00
            1     17    8765.16 0.118      60.98    0.300     59.00        1.235 0.95 1.00
            1     18    1562.01 0.037      91.46    0.300     59.00        1.230 0.95 1.00
            1     19      95.01 0.006     121.95    0.300     59.00        2.249 0.95 1.00
            1     20     272.91 0.015     121.95    0.300     59.00        1.729 0.95 1.00
            1     21    4808.46 0.036      91.46    0.150     69.00        1.099 0.95 1.00
            1     22     902.05 0.015     121.95    0.150     69.00        1.207 0.95 1.00
            1     23     382.89 0.006     121.95    0.150     69.00        1.516 0.95 1.00
            1     24   36910.83 0.140      24.39    0.150     69.00        2.440 0.95 1.00
            2     25      31.02 0.006     121.95    0.100     66.00        1.167 0.95 1.00
            2     26   47007.32 0.383       9.15    0.100     66.00        5.941 0.95 1.00
            2     27     348.77 0.037      91.46    0.100     66.00        0.645 0.95 1.00
            2     28      63.23 0.015     121.95    0.100     66.00        0.897 0.95 1.00
            2     29   32791.43 0.299       9.15    0.100     66.00        4.360 0.95 1.00
            2     30      89.91 0.016     121.95    0.100     66.00        0.887 0.95 1.00
            2     31      38.91 0.006     121.95    0.100     66.00        1.169 0.95 1.00
            2     32     509.80 0.036      91.46    0.100     66.00        0.681 0.95 1.00
            2     33     281.06 0.036      91.46    0.100     66.00        0.635 0.95 1.00
            2     34      44.56 0.015     121.95    0.100     66.00        0.892 0.95 1.00
            2     35   35002.45 0.366       9.15    0.100     66.00        4.607 0.95 1.00
            2     36      19.98 0.006     121.95    0.100     66.00        1.164 0.95 1.00
            2     37     298.54 0.036      91.46    0.100     66.00        0.639 0.95 1.00
            2     38   20058.63 0.358       9.15    0.100     66.00        2.858 0.95 1.00
            2     39      66.79 0.015     121.95    0.100     66.00        0.898 0.95 1.00
            2     40      60.21 0.004     121.95    0.100     66.00        1.324 0.95 1.00
            2     41      81.72 0.036      91.46    0.100     97.22        0.591 0.95 1.00
            2     42      12.02 0.005     121.95    0.100     97.22        1.226 0.95 1.00
            2     43      18.61 0.016     121.95    0.100     97.22        0.868 0.95 1.00
            2     44    1104.92 0.231      15.24    0.100     97.22        0.332 0.95 1.00
            2     45      29.27 0.007     121.95    0.100     97.22        1.114 0.95 1.00
            2     46     339.60 0.036      91.46    0.100     97.22        0.647 0.95 1.00
            2     47    3780.56 0.192      18.29    0.100     97.22        0.778 0.95 1.00
            2     48      67.69 0.016     121.95    0.100     97.22        0.881 0.95 1.00
            2     49    1282.92 0.193      18.29    0.100     97.48        0.382 0.95 1.00
            2     50      12.36 0.006     121.95    0.100     97.48        1.161 0.95 1.00
            2     51     164.14 0.036      91.46    0.100     97.48        0.610 0.95 1.00
            2     52      26.41 0.016     121.95    0.100     97.48        0.870 0.95 1.00
            2     53     115.53 0.016     121.95    0.300     59.00        1.697 0.95 1.00
            2     54     668.42 0.037      91.46    0.300     59.00        1.233 0.95 1.00
            2     55    5591.77 0.150      24.39    0.300     59.00        1.236 0.95 1.00
            2     56      47.44 0.006     121.95    0.300     59.00        2.251 0.95 1.00
            2     57     184.08 0.015     121.95    0.300     72.00        1.745 0.95 1.00
            2     58     416.40 0.034      91.46    0.300     72.00        1.212 0.95 1.00
            2     59      86.84 0.006     121.95    0.300     72.00        2.261 0.95 1.00
            2     60     553.83 0.107      60.98    0.300     72.00        0.742 0.95 1.00
            2     61     169.22 0.006     121.95    0.150     69.00        1.518 0.95 1.00
            2     62    2152.64 0.036      91.46    0.150     69.00        1.121 0.95 1.00
            2     63   35064.50 0.195      18.29    0.150     69.00        4.709 0.95 1.00
            2     64     374.06 0.015     121.95    0.150     69.00        1.207 0.95 1.00
            3     65    1230.21 0.014     121.95    0.140     77.00        1.303 0.95 1.00
            3     66     823.09 0.030      91.46    0.140     77.00        0.879 0.95 1.00
            3     67    2889.21 0.005     121.95    0.140     77.00        1.928 0.95 1.00
            3     68     100.10 0.067      60.98    0.140     77.00        0.476 0.95 1.00
            3     69    3526.06 0.031      91.46    0.140     77.00        1.242 0.95 1.00
            3     70     522.29 0.065      60.98    0.140     77.00        0.554 0.95 1.00
            3     71    2883.75 0.006     121.95    0.140     77.00        1.847 0.95 1.00
            3     72    3745.55 0.014     121.95    0.140     77.00        1.640 0.95 1.00
            3     73    1078.45 0.015     121.95    0.140     77.00        1.258 0.95 1.00
            3     74     592.76 0.006     121.95    0.140     77.00        1.524 0.95 1.00
            3     75     976.11 0.069      60.98    0.140     77.00        0.616 0.95 1.00
            3     76    2323.35 0.033      91.46    0.140     77.00        1.072 0.95 1.00
            3     77    3239.11 0.005     121.95    0.140     78.00        1.973 0.95 1.00
            3     78    1219.53 0.014     121.95    0.140     78.00        1.301 0.95 1.00
            3     79     781.90 0.029      91.46    0.140     78.00        0.880 0.95 1.00
            3     80     119.97 0.067      60.98    0.140     78.00        0.480 0.95 1.00
            3     81     228.34 0.065      60.98    0.140     78.00        0.504 0.95 1.00
            3     82    1785.29 0.014     121.95    0.140     78.00        1.382 0.95 1.00
            3     83    1385.70 0.006     121.95    0.140     78.00        1.643 0.95 1.00
            3     84    1531.98 0.030      91.46    0.140     78.00        0.983 0.95 1.00
            3     85     742.97 0.070      60.98    0.140     78.00        0.579 0.95 1.00
            3     86     395.37 0.007     121.95    0.140     78.00        1.428 0.95 1.00
            3     87     685.15 0.015     121.95    0.140     78.00        1.198 0.95 1.00
            3     88    1564.95 0.033      91.46    0.140     78.00        0.967 0.95 1.00
            3     89    2894.28 0.006     121.95    0.140     73.00        1.849 0.95 1.00
            3     90    3559.44 0.014     121.95    0.140     73.00        1.617 0.95 1.00
            3     91     382.27 0.063      60.98    0.140     73.00        0.535 0.95 1.00
            3     92    3103.96 0.030      91.46    0.140     73.00        1.195 0.95 1.00
            3     93     442.22 0.007     121.95    0.140     73.00        1.435 0.95 1.00
            3     94     929.64 0.015     121.95    0.140     73.00        1.236 0.95 1.00
            3     95    1899.30 0.033      91.46    0.140     73.00        1.014 0.95 1.00
            3     96     745.01 0.069      60.98    0.140     73.00        0.581 0.95 1.00
            3     97    2552.11 0.106      60.98    0.100     66.00        0.710 0.95 1.00
            3     98    2147.15 0.014     121.95    0.100     66.00        1.231 0.95 1.00
            3     99    6513.60 0.004     121.95    0.100     66.00        2.187 0.95 1.00
            3    100    1974.59 0.032      91.46    0.100     66.00        0.899 0.95 1.00
            3    101    4985.15 0.084      60.98    0.100     66.00        1.042 0.95 1.00
            3    102    2137.26 0.006     121.95    0.100     66.00        1.489 0.95 1.00
            3    103    4948.78 0.034      91.46    0.100     66.00        1.271 0.95 1.00
            3    104    2963.64 0.015     121.95    0.100     66.00        1.321 0.95 1.00
            3    105   26492.39 0.096      60.98    0.100     66.00        3.336 0.95 1.00
            3    106    9319.79 0.036      91.46    0.100     66.00        1.773 0.95 1.00
            3    107    1999.73 0.015     121.95    0.100     66.00        1.192 0.95 1.00
            3    108     977.80 0.006     121.95    0.100     66.00        1.324 0.95 1.00
            3    109    1195.02 0.006     121.95    0.100     97.22        1.357 0.95 1.00
            3    110     594.18 0.070      60.98    0.100     97.22        0.474 0.95 1.00
            3    111    1651.44 0.015     121.95    0.100     97.22        1.144 0.95 1.00
            3    112    1979.62 0.032      91.46    0.100     97.22        0.900 0.95 1.00
            3    113     820.03 0.015     121.95    0.100     97.22        1.023 0.95 1.00
            3    114     364.96 0.007     121.95    0.100     97.22        1.175 0.95 1.00
            3    115    1676.29 0.076      60.98    0.100     97.22        0.625 0.95 1.00
            3    116    2187.28 0.034      91.46    0.100     97.22        0.917 0.95 1.00
            3    117    2134.80 0.004     121.95    0.050     66.00        1.194 0.95 1.00
            3    118     171.73 0.029      91.46    0.050     66.00        0.437 0.95 1.00
            3    119     350.81 0.014     121.95    0.050     66.00        0.660 0.95 1.00
            3    120      29.88 0.083      60.98    0.050     66.00        0.237 0.95 1.00
            3    121     434.67 0.092      60.98    0.050     66.00        0.304 0.95 1.00
            3    122     320.23 0.014     121.95    0.050     66.00        0.655 0.95 1.00
            3    123     443.08 0.033      91.46    0.050     66.00        0.469 0.95 1.00
            3    124     862.58 0.004     121.95    0.050     66.00        1.012 0.95 1.00
            3    125     166.51 0.014     121.95    0.050     77.00        0.628 0.95 1.00
            3    126     814.18 0.004     121.95    0.050     77.00        1.005 0.95 1.00
            3    127     197.82 0.032      91.46    0.050     77.00        0.430 0.95 1.00
            3    128     152.63 0.086      60.98    0.050     77.00        0.260 0.95 1.00
            3    129     271.48 0.004     121.95    0.300     59.00        2.581 0.95 1.00
            3    130     117.28 0.031      91.46    0.300     59.00        1.176 0.95 1.00
            3    131      40.37 0.080      60.98    0.300     59.00        0.689 0.95 1.00
            3    132     102.45 0.014     121.95    0.300     59.00        1.758 0.95 1.00
            3    133      43.82 0.077      60.98    0.300     72.00        0.697 0.95 1.00
            3    134     336.49 0.005     121.95    0.300     72.00        2.428 0.95 1.00
            3    135     141.25 0.031      91.46    0.300     72.00        1.181 0.95 1.00
            3    136     181.87 0.014     121.95    0.300     72.00        1.773 0.95 1.00
            3    137     146.41 0.069      60.98    0.300     59.00        0.741 0.95 1.00
            3    138     194.05 0.006     121.95    0.300     59.00        2.277 0.95 1.00
            3    139     299.15 0.015     121.95    0.300     59.00        1.759 0.95 1.00
            3    140     432.31 0.032      91.46    0.300     59.00        1.221 0.95 1.00
            3    141     586.53 0.076      60.98    0.300     59.00        0.796 0.95 1.00
            3    142     289.89 0.015     121.95    0.300     59.00        1.757 0.95 1.00
            3    143     140.58 0.006     121.95    0.300     59.00        2.267 0.95 1.00
            3    144     789.46 0.034      91.46    0.300     59.00        1.257 0.95 1.00
            3    145    2627.75 0.071      60.98    0.150     69.00        0.862 0.95 1.00
            3    146    5845.63 0.033      91.46    0.150     69.00        1.545 0.95 1.00
            3    147    3678.24 0.015     121.95    0.150     69.00        1.655 0.95 1.00
            3    148    2436.49 0.006     121.95    0.150     69.00        1.848 0.95 1.00
            3    149    1193.18 0.007     121.95    0.150     69.00        1.608 0.95 1.00
            3    150   10201.31 0.080      60.98    0.150     69.00        1.751 0.95 1.00
            3    151    9343.52 0.035      91.46    0.150     69.00        1.938 0.95 1.00
            3    152    2733.80 0.015     121.95    0.150     69.00        1.533 0.95 1.00
            4    153    1191.49 0.130      24.39    0.100     59.00        0.318 0.95 1.00
            4    154      32.74 0.015     121.95    0.100     59.00        0.885 0.95 1.00
            4    155       8.79 0.006     121.95    0.100     59.00        1.159 0.95 1.00
            4    156     191.86 0.037      91.46    0.100     59.00        0.593 0.95 1.00
            4    157      61.97 0.015     121.95    0.100     72.00        0.890 0.95 1.00
            4    158      39.10 0.005     121.95    0.100     72.00        1.229 0.95 1.00
            4    159     951.73 0.154      24.39    0.100     72.00        0.284 0.95 1.00
            4    160     160.74 0.035      91.46    0.100     72.00        0.598 0.95 1.00
            4    161      27.73 0.015     121.95    0.100     77.00        0.884 0.95 1.00
            4    162    2440.66 0.218      15.24    0.100     77.00        0.381 0.95 1.00
            4    163      18.89 0.004     121.95    0.100     77.00        1.310 0.95 1.00
            4    164     122.04 0.036      91.46    0.100     77.00        0.588 0.95 1.00
            4    165    3117.95 0.217      15.24    0.100     66.00        0.445 0.95 1.00
            4    166       8.45 0.006     121.95    0.100     66.00        1.159 0.95 1.00
            4    167     153.60 0.037      91.46    0.100     66.00        0.588 0.95 1.00
            4    168      27.21 0.016     121.95    0.100     66.00        0.867 0.95 1.00
            4    169      83.34 0.015     121.95    0.100     77.00        0.893 0.95 1.00
            4    170      76.21 0.005     121.95    0.100     77.00        1.235 0.95 1.00
            4    171     316.59 0.036      91.46    0.100     77.00        0.614 0.95 1.00
            4    172    7196.76 0.261       9.15    0.100     77.00        0.768 0.95 1.00
            4    173       1.98 0.007     121.95    0.100     66.00        1.105 0.95 1.00
            4    174    2471.30 0.351       9.15    0.100     66.00        0.343 0.95 1.00
            4    175      26.02 0.038      91.46    0.100     66.00        0.565 0.95 1.00
            4    176       4.09 0.015     121.95    0.100     66.00        0.880 0.95 1.00
            4    177      79.95 0.037      91.46    0.100     97.48        0.578 0.95 1.00
            4    178     730.41 0.151      24.39    0.100     97.48        0.260 0.95 1.00
            4    179      15.37 0.015     121.95    0.100     97.48        0.882 0.95 1.00
            4    180      13.94 0.004     121.95    0.100     97.48        1.310 0.95 1.00
            4    181    1766.32 0.147      24.39    0.100     97.22        0.370 0.95 1.00
            4    182      13.22 0.006     121.95    0.100     97.22        1.160 0.95 1.00
            4    183      39.56 0.015     121.95    0.100     97.22        0.886 0.95 1.00
            4    184     226.39 0.036      91.46    0.100     97.22        0.602 0.95 1.00
            4    185    1483.33 0.161      18.29    0.100     97.48        0.311 0.95 1.00
            4    186     259.40 0.035      91.46    0.100     97.48        0.611 0.95 1.00
            4    187     103.90 0.015     121.95    0.100     97.48        0.896 0.95 1.00
            4    188      85.67 0.005     121.95    0.100     97.48        1.236 0.95 1.00
            4    189      13.13 0.007     121.95    0.100     63.29        1.107 0.95 1.00
            4    190    1208.29 0.124      24.39    0.100     63.29        0.322 0.95 1.00
            4    191     236.63 0.036      91.46    0.100     63.29        0.603 0.95 1.00
            4    192      43.78 0.016     121.95    0.100     63.29        0.870 0.95 1.00
            4    193     828.22 0.143      24.39    0.100     74.86        0.274 0.95 1.00
            4    194      88.36 0.005     121.95    0.100     74.86        1.237 0.95 1.00
            4    195     209.45 0.035      91.46    0.100     74.86        0.605 0.95 1.00
            4    196      87.10 0.015     121.95    0.100     74.86        0.893 0.95 1.00
            4    197     255.41 0.033      91.46    0.100     63.29        0.621 0.95 1.00
            4    198     292.86 0.114      60.98    0.100     63.29        0.357 0.95 1.00
            4    199     139.29 0.015     121.95    0.100     63.29        0.901 0.95 1.00
            4    200      83.06 0.006     121.95    0.100     63.29        1.171 0.95 1.00
            4    201       5.80 0.006     121.95    0.100     73.82        1.158 0.95 1.00
            4    202     141.85 0.110      60.98    0.100     73.82        0.341 0.95 1.00
            4    203      47.35 0.036      91.46    0.100     73.82        0.577 0.95 1.00
            4    204      13.64 0.015     121.95    0.100     73.82        0.882 0.95 1.00
            4    205      65.18 0.005     121.95    0.100     81.88        1.233 0.95 1.00
            4    206     223.99 0.125      24.39    0.100     81.88        0.210 0.95 1.00
            4    207      50.15 0.015     121.95    0.100     81.88        0.888 0.95 1.00
            4    208      94.92 0.034      91.46    0.100     81.88        0.594 0.95 1.00
            4    209      88.70 0.101      60.98    0.100     73.82        0.342 0.95 1.00
            4    210      57.66 0.006     121.95    0.100     73.82        1.167 0.95 1.00
            4    211      76.13 0.015     121.95    0.100     73.82        0.892 0.95 1.00
            4    212     119.62 0.032      91.46    0.100     73.82        0.608 0.95 1.00
            4    213    4210.79 0.130      24.39    0.150     69.00        0.654 0.95 1.00
            4    214      41.46 0.006     121.95    0.150     69.00        1.483 0.95 1.00
            4    215     691.44 0.037      91.46    0.150     69.00        0.808 0.95 1.00
            4    216     115.96 0.015     121.95    0.150     69.00        1.140 0.95 1.00
            4    217     214.98 0.015     121.95    0.150     79.00        1.153 0.95 1.00
            4    218     151.96 0.006     121.95    0.150     79.00        1.499 0.95 1.00
            4    219    3796.52 0.154      24.39    0.150     79.00        0.606 0.95 1.00
            4    220     624.91 0.034      91.46    0.150     79.00        0.819 0.95 1.00
            5    221       3.51 0.006     121.95    0.100     72.00        1.158 0.95 1.00
            5    222      57.28 0.036      91.46    0.100     72.00        0.582 0.95 1.00
            5    223       7.86 0.016     121.95    0.100     72.00        0.864 0.95 1.00
            5    224     517.00 0.141      24.39    0.100     72.00        0.265 0.95 1.00
            5    225      12.86 0.006     121.95    0.100     59.00        1.161 0.95 1.00
            5    226      32.62 0.015     121.95    0.100     59.00        0.887 0.95 1.00
            5    227     955.04 0.125      24.39    0.100     59.00        0.337 0.95 1.00
            5    228     169.29 0.036      91.46    0.100     59.00        0.604 0.95 1.00
            5    229       8.66 0.005     121.95    0.100     77.00        1.225 0.95 1.00
            5    230      77.97 0.037      91.46    0.100     77.00        0.582 0.95 1.00
            5    231    2163.08 0.233      15.24    0.100     77.00        0.439 0.95 1.00
            5    232      15.72 0.016     121.95    0.100     77.00        0.866 0.95 1.00
            5    233      30.16 0.015     121.95    0.100     66.00        0.887 0.95 1.00
            5    234    2060.94 0.200      15.24    0.100     66.00        0.430 0.95 1.00
            5    235     148.78 0.036      91.46    0.100     66.00        0.600 0.95 1.00
            5    236      14.12 0.006     121.95    0.100     66.00        1.161 0.95 1.00
            5    237      10.91 0.039      91.46    0.100     77.00        0.558 0.95 1.00
            5    238     557.03 0.260       9.15    0.100     77.00        0.179 0.95 1.00
            5    239       0.96 0.005     121.95    0.100     77.00        1.222 0.95 1.00
            5    240       0.96 0.014     121.95    0.100     77.00        0.898 0.95 1.00
            5    241      17.28 0.016     121.95    0.100     97.48        0.867 0.95 1.00
            5    242       6.78 0.005     121.95    0.100     97.48        1.224 0.95 1.00
            5    243     838.85 0.141      24.39    0.100     97.48        0.314 0.95 1.00
            5    244      94.74 0.037      91.46    0.100     97.48        0.585 0.95 1.00
            5    245    1027.01 0.131      24.39    0.100     97.22        0.345 0.95 1.00
            5    246      39.71 0.016     121.95    0.100     97.22        0.872 0.95 1.00
            5    247     192.86 0.036      91.46    0.100     97.22        0.608 0.95 1.00
            5    248      20.89 0.006     121.95    0.100     97.22        1.163 0.95 1.00
            5    249       6.66 0.015     121.95    0.100     74.86        0.881 0.95 1.00
            5    250       1.93 0.006     121.95    0.100     74.86        1.158 0.95 1.00
            5    251     298.27 0.128      24.39    0.100     74.86        0.234 0.95 1.00
            5    252      41.54 0.037      91.46    0.100     74.86        0.574 0.95 1.00
            5    253     482.34 0.115      60.98    0.100     63.29        0.403 0.95 1.00
            5    254      10.41 0.006     121.95    0.100     63.29        1.160 0.95 1.00
            5    255      21.47 0.015     121.95    0.100     63.29        0.885 0.95 1.00
            5    256     110.55 0.037      91.46    0.100     63.29        0.588 0.95 1.00
            5    257    2115.24 0.141      24.39    0.150     79.00        0.539 0.95 1.00
            5    258      34.20 0.015     121.95    0.150     79.00        1.130 0.95 1.00
            5    259     227.92 0.037      91.46    0.150     79.00        0.765 0.95 1.00
            5    260      13.72 0.007     121.95    0.150     79.00        1.413 0.95 1.00
            5    261    3192.53 0.128      24.39    0.150     69.00        0.685 0.95 1.00
            5    262      39.56 0.006     121.95    0.150     69.00        1.486 0.95 1.00
            5    263     105.17 0.015     121.95    0.150     69.00        1.144 0.95 1.00
            5    264     552.21 0.036      91.46    0.150     69.00        0.825 0.95 1.00
            6    265    1072.99 0.124      24.39    0.100     72.00        0.339 0.95 1.00
            6    266     176.59 0.036      91.46    0.100     72.00        0.602 0.95 1.00
            6    267      29.18 0.016     121.95    0.100     72.00        0.869 0.95 1.00
            6    268       9.73 0.006     121.95    0.100     72.00        1.160 0.95 1.00
            6    269      12.27 0.005     121.95    0.100     72.00        1.225 0.95 1.00
            6    270      87.20 0.036      91.46    0.100     72.00        0.587 0.95 1.00
            6    271     452.20 0.121      24.39    0.100     72.00        0.255 0.95 1.00
            6    272      17.37 0.015     121.95    0.100     72.00        0.883 0.95 1.00
            6    273     244.22 0.036      91.46    0.100     59.00        0.613 0.95 1.00
            6    274      42.73 0.015     121.95    0.100     59.00        0.889 0.95 1.00
            6    275      17.37 0.007     121.95    0.100     59.00        1.109 0.95 1.00
            6    276    1196.78 0.120      60.98    0.100     59.00        0.488 0.95 1.00
            6    277     539.04 0.160      18.29    0.100     72.00        0.227 0.95 1.00
            6    278      19.45 0.015     121.95    0.100     72.00        0.884 0.95 1.00
            6    279      13.67 0.005     121.95    0.100     72.00        1.226 0.95 1.00
            6    280      91.36 0.036      91.46    0.100     72.00        0.587 0.95 1.00
            6    281      82.60 0.015     121.95    0.100     77.00        0.896 0.95 1.00
            6    282     433.77 0.036      91.46    0.100     77.00        0.642 0.95 1.00
            6    283   19624.92 0.355       9.15    0.100     77.00        2.126 0.95 1.00
            6    284      75.53 0.004     121.95    0.100     77.00        1.323 0.95 1.00
            6    285       1.35 0.007     121.95    0.100     77.00        1.105 0.95 1.00
            6    286    6842.36 0.349       9.15    0.100     77.00        0.889 0.95 1.00
            6    287      55.21 0.038      91.46    0.100     77.00        0.572 0.95 1.00
            6    288       5.42 0.016     121.95    0.100     77.00        0.864 0.95 1.00
            6    289    7146.88 0.217      15.24    0.100     66.00        0.962 0.95 1.00
            6    290      61.39 0.016     121.95    0.100     66.00        0.875 0.95 1.00
            6    291      29.79 0.005     121.95    0.100     66.00        1.229 0.95 1.00
            6    292     322.88 0.037      91.46    0.100     66.00        0.621 0.95 1.00
            6    293      33.12 0.015     121.95    0.100     97.48        0.887 0.95 1.00
            6    294      10.93 0.007     121.95    0.100     97.48        1.108 0.95 1.00
            6    295     157.84 0.036      91.46    0.100     97.48        0.599 0.95 1.00
            6    296     784.57 0.124      24.39    0.100     97.48        0.300 0.95 1.00
            6    297     194.68 0.037      91.46    0.100     97.22        0.600 0.95 1.00
            6    298    1089.55 0.122      24.39    0.100     97.22        0.342 0.95 1.00
            6    299      32.11 0.015     121.95    0.100     97.22        0.886 0.95 1.00
            6    300      15.43 0.006     121.95    0.100     97.22        1.161 0.95 1.00
            6    301      13.75 0.006     121.95    0.100     97.48        1.161 0.95 1.00
            6    302      25.46 0.015     121.95    0.100     97.48        0.885 0.95 1.00
            6    303     860.61 0.216      15.24    0.100     97.48        0.247 0.95 1.00
            6    304     102.97 0.036      91.46    0.100     97.48        0.590 0.95 1.00
            6    305    1398.46 0.124      24.39    0.100     97.22        0.381 0.95 1.00
            6    306      57.46 0.015     121.95    0.100     97.22        0.891 0.95 1.00
            6    307     300.13 0.036      91.46    0.100     97.22        0.622 0.95 1.00
            6    308      21.52 0.006     121.95    0.100     97.22        1.162 0.95 1.00
            6    309      84.83 0.015     121.95    0.100     97.22        0.896 0.95 1.00
            6    310    2249.96 0.129      24.39    0.100     97.22        0.484 0.95 1.00
            6    311     432.95 0.036      91.46    0.100     97.22        0.642 0.95 1.00
            6    312      37.52 0.006     121.95    0.100     97.22        1.166 0.95 1.00
            6    313       6.87 0.006     121.95    0.100     74.86        1.159 0.95 1.00
            6    314      99.91 0.036      91.46    0.100     74.86        0.589 0.95 1.00
            6    315      20.37 0.015     121.95    0.100     74.86        0.884 0.95 1.00
            6    316     384.21 0.114      60.98    0.100     74.86        0.381 0.95 1.00
            6    317     509.79 0.107      60.98    0.100     63.29        0.406 0.95 1.00
            6    318       9.88 0.006     121.95    0.100     63.29        1.160 0.95 1.00
            6    319     119.55 0.037      91.46    0.100     63.29        0.588 0.95 1.00
            6    320      19.29 0.016     121.95    0.100     63.29        0.867 0.95 1.00
            6    321     906.06 0.104      60.98    0.100     63.29        0.464 0.95 1.00
            6    322     297.19 0.036      91.46    0.100     63.29        0.621 0.95 1.00
            6    323      59.66 0.015     121.95    0.100     63.29        0.892 0.95 1.00
            6    324      24.95 0.006     121.95    0.100     63.29        1.163 0.95 1.00
            6    325      57.37 0.015     121.95    0.100     63.29        0.891 0.95 1.00
            6    326      28.44 0.006     121.95    0.100     63.29        1.164 0.95 1.00
            6    327    1048.99 0.110      60.98    0.100     63.29        0.477 0.95 1.00
            6    328     291.89 0.036      91.46    0.100     63.29        0.620 0.95 1.00
            6    329      46.47 0.006     121.95    0.150     79.00        1.486 0.95 1.00
            6    330     740.76 0.037      91.46    0.150     79.00        0.836 0.95 1.00
            6    331    4522.81 0.125      24.39    0.150     79.00        0.795 0.95 1.00
            6    332     119.85 0.016     121.95    0.150     79.00        1.123 0.95 1.00
            6    333      70.89 0.006     121.95    0.150     69.00        1.491 0.95 1.00
            6    334     967.13 0.037      91.46    0.150     69.00        0.867 0.95 1.00
            6    335     177.53 0.016     121.95    0.150     69.00        1.133 0.95 1.00
            6    336    5017.03 0.119      60.98    0.150     69.00        1.020 0.95 1.00
            6    337    2362.82 0.163      18.29    0.150     79.00        0.498 0.95 1.00
            6    338      53.32 0.005     121.95    0.150     79.00        1.570 0.95 1.00
            6    339      83.97 0.015     121.95    0.150     79.00        1.138 0.95 1.00
            6    340     403.02 0.036      91.46    0.150     79.00        0.794 0.95 1.00
            6    341     841.42 0.037      91.46    0.150     69.00        0.850 0.95 1.00
            6    342     142.65 0.015     121.95    0.150     69.00        1.149 0.95 1.00
            6    343    7022.04 0.143      24.39    0.150     69.00        1.053 0.95 1.00
            6    344      67.02 0.005     121.95    0.150     69.00        1.573 0.95 1.00
            7    345     546.36 0.031      91.46    0.140     77.00        0.848 0.95 1.00
            7    346     466.99 0.015     121.95    0.140     77.00        1.180 0.95 1.00
            7    347      90.08 0.066      60.98    0.140     77.00        0.480 0.95 1.00
            7    348     340.96 0.006     121.95    0.140     77.00        1.495 0.95 1.00
            7    349     381.02 0.070      60.98    0.140     77.00        0.535 0.95 1.00
            7    350     873.83 0.033      91.46    0.140     77.00        0.896 0.95 1.00
            7    351     205.69 0.007     121.95    0.140     77.00        1.403 0.95 1.00
            7    352     440.43 0.015     121.95    0.140     77.00        1.175 0.95 1.00
            7    353     622.25 0.015     121.95    0.140     73.00        1.210 0.95 1.00
            7    354     478.56 0.006     121.95    0.140     73.00        1.523 0.95 1.00
            7    355     584.53 0.031      91.46    0.140     73.00        0.855 0.95 1.00
            7    356     111.38 0.071      60.98    0.140     73.00        0.475 0.95 1.00
            7    357     117.14 0.007     121.95    0.140     73.00        1.383 0.95 1.00
            7    358     191.67 0.071      60.98    0.140     73.00        0.493 0.95 1.00
            7    359     225.50 0.015     121.95    0.140     73.00        1.131 0.95 1.00
            7    360     414.04 0.033      91.46    0.140     73.00        0.809 0.95 1.00
            7    361   31326.54 0.108      60.98    0.100     66.00        4.477 0.95 1.00
            7    362    1568.93 0.015     121.95    0.100     66.00        1.182 0.95 1.00
            7    363     676.71 0.006     121.95    0.100     66.00        1.302 0.95 1.00
            7    364    7374.02 0.036      91.46    0.100     66.00        1.741 0.95 1.00
            7    365      96.82 0.007     121.95    0.100     77.00        1.131 0.95 1.00
            7    366    1602.36 0.036      91.46    0.100     77.00        0.877 0.95 1.00
            7    367     302.87 0.016     121.95    0.100     77.00        0.934 0.95 1.00
            7    368   13421.67 0.138      24.39    0.100     77.00        2.152 0.95 1.00
            7    369   15957.26 0.147      24.39    0.100     66.00        2.472 0.95 1.00
            7    370     121.63 0.007     121.95    0.100     66.00        1.137 0.95 1.00
            7    371    1781.53 0.036      91.46    0.100     66.00        0.907 0.95 1.00
            7    372     379.88 0.015     121.95    0.100     66.00        0.966 0.95 1.00
            7    373     404.32 0.014     121.95    0.010     92.00        0.318 0.95 1.00
            7    374     462.57 0.103      60.98    0.010     92.00        0.186 0.95 1.00
            7    375   20149.61 0.000     121.95    0.010     92.00        3.817 0.95 1.00
            7    376     473.71 0.032      91.46    0.010     92.00        0.254 0.95 1.00
            7    377      76.59 0.112      60.98    0.010     92.00        0.101 0.95 1.00
            7    378      67.93 0.014     121.95    0.010     92.00        0.245 0.95 1.00
            7    379      95.60 0.033      91.46    0.010     92.00        0.173 0.95 1.00
            7    380    3891.53 0.000     121.95    0.010     92.00        1.663 0.95 1.00
            7    381     261.79 0.032      91.46    0.100     97.22        0.652 0.95 1.00
            7    382      81.70 0.067      60.98    0.100     97.22        0.393 0.95 1.00
            7    383     123.20 0.006     121.95    0.100     97.22        1.190 0.95 1.00
            7    384     190.15 0.015     121.95    0.100     97.22        0.927 0.95 1.00
            7    385     108.76 0.007     121.95    0.100     97.22        1.134 0.95 1.00
            7    386     252.06 0.015     121.95    0.100     97.22        0.940 0.95 1.00
            7    387     796.40 0.035      91.46    0.100     97.22        0.741 0.95 1.00
            7    388     860.10 0.080      60.98    0.100     97.22        0.530 0.95 1.00
            7    389     168.67 0.031      91.46    0.050     66.00        0.435 0.95 1.00
            7    390    1106.54 0.004     121.95    0.050     66.00        1.085 0.95 1.00
            7    391     273.64 0.014     121.95    0.050     66.00        0.658 0.95 1.00
            7    392      53.11 0.079      60.98    0.050     66.00        0.248 0.95 1.00
            7    393     244.34 0.089      60.98    0.050     66.00        0.284 0.95 1.00
            7    394     264.67 0.033      91.46    0.050     66.00        0.449 0.95 1.00
            7    395     120.17 0.006     121.95    0.050     66.00        0.795 0.95 1.00
            7    396     164.31 0.015     121.95    0.050     66.00        0.622 0.95 1.00
            7    397      37.15 0.005     121.95    0.050     77.00        0.818 0.95 1.00
            7    398      61.09 0.015     121.95    0.050     77.00        0.598 0.95 1.00
            7    399     145.49 0.033      91.46    0.050     77.00        0.423 0.95 1.00
            7    400     213.31 0.109      60.98    0.050     77.00        0.264 0.95 1.00
            7    401      22.44 0.015     121.95    0.050     83.00        0.587 0.95 1.00
            7    402      67.57 0.003     121.95    0.050     83.00        0.959 0.95 1.00
            7    403      88.64 0.036      91.46    0.050     83.00        0.400 0.95 1.00
            7    404     291.72 0.127      24.39    0.050     83.00        0.186 0.95 1.00
            7    405     158.95 0.034      91.46    0.050     66.00        0.423 0.95 1.00
            7    406     210.68 0.105      60.98    0.050     66.00        0.266 0.95 1.00
            7    407      27.80 0.006     121.95    0.050     66.00        0.772 0.95 1.00
            7    408      62.83 0.015     121.95    0.050     66.00        0.598 0.95 1.00
            7    409     593.79 0.079      60.98    0.150     69.00        0.579 0.95 1.00
            7    410     994.03 0.033      91.46    0.150     69.00        0.948 0.95 1.00
            7    411     530.83 0.015     121.95    0.150     69.00        1.238 0.95 1.00
            7    412     323.99 0.006     121.95    0.150     69.00        1.552 0.95 1.00
            7    413     443.68 0.007     121.95    0.150     69.00        1.509 0.95 1.00
            7    414    1008.18 0.015     121.95    0.150     69.00        1.327 0.95 1.00
            7    415    4742.81 0.085      60.98    0.150     69.00        1.236 0.95 1.00
            7    416    3391.83 0.035      91.46    0.150     69.00        1.326 0.95 1.00
            8    417      59.30 0.006     121.95    0.100     66.00        1.162 0.95 1.00
            8    418     145.07 0.015     121.95    0.100     66.00        0.889 0.95 1.00
            8    419     602.83 0.036      91.46    0.100     66.00        0.604 0.95 1.00
            8    420   41681.48 0.321       9.15    0.100     66.00        1.529 0.95 1.00
            8    421      38.22 0.015     121.95    0.100     77.00        0.882 0.95 1.00
            8    422      21.67 0.006     121.95    0.100     77.00        1.159 0.95 1.00
            8    423     174.86 0.036      91.46    0.100     77.00        0.581 0.95 1.00
            8    424   29507.23 0.402       9.15    0.100     77.00        1.144 0.95 1.00
            8    425     189.91 0.037      91.46    0.100     66.00        0.577 0.95 1.00
            8    426   25071.88 0.363       9.15    0.100     66.00        1.004 0.95 1.00
            8    427      25.28 0.016     121.95    0.100     66.00        0.864 0.95 1.00
            8    428      14.00 0.006     121.95    0.100     66.00        1.158 0.95 1.00
            8    429     201.94 0.002     121.95    0.010     92.00        0.418 0.95 1.00
            8    430      65.09 0.032      91.46    0.010     92.00        0.153 0.95 1.00
            8    431      49.18 0.014     121.95    0.010     92.00        0.229 0.95 1.00
            8    432      73.38 0.162      18.29    0.010     92.00        0.040 0.95 1.00
            8    433      76.14 0.137      24.39    0.010     92.00        0.049 0.95 1.00
            8    434     114.51 0.014     121.95    0.010     92.00        0.234 0.95 1.00
            8    435    1849.26 0.001     121.95    0.010     92.00        0.593 0.95 1.00
            8    436     120.26 0.031      91.46    0.010     92.00        0.158 0.95 1.00
            8    437       7.24 0.007     121.95    0.100     97.22        1.105 0.95 1.00
            8    438    1069.38 0.241      15.24    0.100     97.22        0.169 0.95 1.00
            8    439      79.82 0.035      91.46    0.100     97.22        0.580 0.95 1.00
            8    440      16.11 0.015     121.95    0.100     97.22        0.880 0.95 1.00
            8    441    1145.51 0.218      15.24    0.100     97.22        0.176 0.95 1.00
            8    442       4.58 0.016     121.95    0.100     97.22        0.863 0.95 1.00
            8    443      39.76 0.037      91.46    0.100     97.22        0.567 0.95 1.00
            8    444       1.62 0.007     121.95    0.100     97.22        1.105 0.95 1.00
            8    445     251.02 0.035      91.46    0.100     97.22        0.590 0.95 1.00
            8    446      74.80 0.015     121.95    0.100     97.22        0.885 0.95 1.00
            8    447      29.42 0.007     121.95    0.100     97.22        1.107 0.95 1.00
            8    448    3598.26 0.231      15.24    0.100     97.22        0.282 0.95 1.00
            8    449    1149.36 0.229      15.24    0.100     97.62        0.174 0.95 1.00
            8    450      96.38 0.036      91.46    0.100     97.62        0.576 0.95 1.00
            8    451       5.76 0.006     121.95    0.100     97.62        1.158 0.95 1.00
            8    452      15.67 0.015     121.95    0.100     97.62        0.880 0.95 1.00
            8    453    1025.65 0.205      15.24    0.300     59.00        0.280 0.95 1.00
            8    454     146.07 0.034      91.46    0.300     59.00        1.129 0.95 1.00
            8    455      82.40 0.006     121.95    0.300     59.00        2.243 0.95 1.00
            8    456      70.80 0.014     121.95    0.300     59.00        1.740 0.95 1.00
            8    457     668.27 0.201      15.24    0.300     59.00        0.263 0.95 1.00
            8    458      28.33 0.037      91.46    0.300     59.00        1.093 0.95 1.00
            8    459       5.69 0.015     121.95    0.300     59.00        1.700 0.95 1.00
            8    460       1.78 0.008     121.95    0.300     59.00        2.052 0.95 1.00
            8    461     122.21 0.035      91.46    0.300     59.00        1.118 0.95 1.00
            8    462      43.94 0.015     121.95    0.300     59.00        1.703 0.95 1.00
            8    463      19.74 0.007     121.95    0.300     59.00        2.137 0.95 1.00
            8    464    1570.48 0.200      15.24    0.300     59.00        0.307 0.95 1.00
            8    465    1098.19 0.161      18.29    0.150     79.00        0.237 0.95 1.00
            8    466     214.97 0.015     121.95    0.150     79.00        1.136 0.95 1.00
            8    467     114.64 0.007     121.95    0.150     79.00        1.417 0.95 1.00
            8    468     437.59 0.033      91.46    0.150     79.00        0.772 0.95 1.00
            8    469    2967.40 0.177      18.29    0.150     84.00        0.315 0.95 1.00
            8    470      34.35 0.016     121.95    0.150     84.00        1.102 0.95 1.00
            8    471     262.00 0.037      91.46    0.150     84.00        0.737 0.95 1.00
            8    472      10.22 0.005     121.95    0.150     84.00        1.560 0.95 1.00
            8    473      27.13 0.006     121.95    0.150     69.00        1.478 0.95 1.00
            8    474      82.20 0.015     121.95    0.150     69.00        1.127 0.95 1.00
            8    475     399.00 0.036      91.46    0.150     69.00        0.750 0.95 1.00
            8    476    2600.70 0.160      18.29    0.150     69.00        0.305 0.95 1.00
            8    477    1789.74 0.237      15.24    0.150     69.00        0.233 0.95 1.00
            8    478      53.57 0.037      91.46    0.150     69.00        0.724 0.95 1.00
            8    479       9.68 0.015     121.95    0.150     69.00        1.122 0.95 1.00
            8    480       7.78 0.003     121.95    0.150     69.00        1.818 0.95 1.00
            9    481    2574.68 0.125      24.39    0.100     59.00        0.352 0.95 1.00
            9    482      73.16 0.016     121.95    0.100     59.00        0.870 0.95 1.00
            9    483      28.58 0.007     121.95    0.100     59.00        1.108 0.95 1.00
            9    484     452.82 0.036      91.46    0.100     59.00        0.607 0.95 1.00
            9    485   10312.87 0.213      15.24    0.100     66.00        0.702 0.95 1.00
            9    486     535.12 0.037      91.46    0.100     66.00        0.608 0.95 1.00
            9    487      88.72 0.016     121.95    0.100     66.00        0.871 0.95 1.00
            9    488      36.65 0.006     121.95    0.100     66.00        1.161 0.95 1.00
            9    489       5.85 0.007     121.95    0.100     77.00        1.106 0.95 1.00
            9    490     139.25 0.037      91.46    0.100     77.00        0.578 0.95 1.00
            9    491      17.06 0.016     121.95    0.100     77.00        0.864 0.95 1.00
            9    492   27991.13 0.409       9.15    0.100     77.00        1.478 0.95 1.00
            9    493      18.33 0.006     121.95    0.100     66.00        1.159 0.95 1.00
            9    494   29056.66 0.330       9.15    0.100     66.00        1.529 0.95 1.00
            9    495      51.55 0.015     121.95    0.100     66.00        0.885 0.95 1.00
            9    496     333.11 0.037      91.46    0.100     66.00        0.593 0.95 1.00
            9    497    1350.45 0.036      91.46    0.100     97.22        0.668 0.95 1.00
            9    498     247.59 0.016     121.95    0.100     97.22        0.885 0.95 1.00
            9    499    6577.13 0.128      24.39    0.100     97.22        0.573 0.95 1.00
            9    500      96.32 0.006     121.95    0.100     97.22        1.167 0.95 1.00
            9    501       5.28 0.007     121.95    0.100     97.22        1.106 0.95 1.00
            9    502    1359.36 0.213      15.24    0.100     97.22        0.214 0.95 1.00
            9    503      14.49 0.015     121.95    0.100     97.22        0.881 0.95 1.00
            9    504     101.61 0.037      91.46    0.100     97.22        0.574 0.95 1.00
            9    505     206.63 0.016     121.95    0.100     63.29        0.881 0.95 1.00
            9    506    3699.83 0.108      60.98    0.100     63.29        0.561 0.95 1.00
            9    507    1199.93 0.036      91.46    0.100     63.29        0.658 0.95 1.00
            9    508      91.88 0.006     121.95    0.100     63.29        1.166 0.95 1.00
            9    509    2401.10 0.037      91.46    0.150     69.00        0.884 0.95 1.00
            9    510   14661.09 0.129      24.39    0.150     69.00        1.024 0.95 1.00
            9    511     139.60 0.006     121.95    0.150     69.00        1.489 0.95 1.00
            9    512     406.26 0.016     121.95    0.150     69.00        1.134 0.95 1.00
           10    513      33.45 0.006     121.95    0.100     59.00        1.168 0.95 1.00
           10    514    7801.86 0.184      18.29    0.100     59.00        1.412 0.95 1.00
           10    515     415.69 0.037      91.46    0.100     59.00        0.662 0.95 1.00
           10    516      70.79 0.015     121.95    0.100     59.00        0.900 0.95 1.00
           10    517    2238.68 0.134      24.39    0.100     72.00        0.603 0.95 1.00
           10    518     187.85 0.015     121.95    0.100     72.00        0.928 0.95 1.00
           10    519     109.60 0.005     121.95    0.100     72.00        1.253 0.95 1.00
           10    520     615.47 0.035      91.46    0.100     72.00        0.712 0.95 1.00
           10    521     431.23 0.036      91.46    0.100     59.00        0.670 0.95 1.00
           10    522    5068.51 0.176      18.29    0.100     59.00        1.012 0.95 1.00
           10    523      50.03 0.006     121.95    0.100     59.00        1.172 0.95 1.00
           10    524     109.60 0.015     121.95    0.100     59.00        0.910 0.95 1.00
           10    525      10.76 0.005     121.95    0.100     72.00        1.226 0.95 1.00
           10    526    2933.46 0.270       9.15    0.100     72.00        0.622 0.95 1.00
           10    527     121.85 0.037      91.46    0.100     72.00        0.598 0.95 1.00
           10    528      24.34 0.015     121.95    0.100     72.00        0.887 0.95 1.00
           10    529      41.66 0.005     121.95    0.100     66.00        1.235 0.95 1.00
           10    530     542.82 0.037      91.46    0.100     66.00        0.688 0.95 1.00
           10    531      85.13 0.015     121.95    0.100     66.00        0.903 0.95 1.00
           10    532   43480.79 0.301       9.15    0.100     66.00        5.827 0.95 1.00
           10    533     771.71 0.036      91.46    0.100     66.00        0.738 0.95 1.00
           10    534     150.71 0.015     121.95    0.100     66.00        0.919 0.95 1.00
           10    535   22158.85 0.249      15.24    0.100     66.00        3.297 0.95 1.00
           10    536      67.28 0.007     121.95    0.100     66.00        1.125 0.95 1.00
           10    537     159.78 0.015     121.95    0.100     77.00        0.922 0.95 1.00
           10    538   78486.99 0.364       9.15    0.100     77.00        9.714 0.95 1.00
           10    539      69.12 0.006     121.95    0.100     77.00        1.177 0.95 1.00
           10    540     888.58 0.037      91.46    0.100     77.00        0.755 0.95 1.00
           10    541      14.07 0.006     121.95    0.100     97.22        1.162 0.95 1.00
           10    542      38.98 0.016     121.95    0.100     97.22        0.874 0.95 1.00
           10    543    4562.41 0.211      15.24    0.100     97.22        0.914 0.95 1.00
           10    544     231.55 0.037      91.46    0.100     97.22        0.623 0.95 1.00
           10    545    3424.45 0.200      18.29    0.100     97.22        0.752 0.95 1.00
           10    546     401.83 0.036      91.46    0.100     97.22        0.664 0.95 1.00
           10    547      52.91 0.006     121.95    0.100     97.22        1.173 0.95 1.00
           10    548      96.43 0.015     121.95    0.100     97.22        0.906 0.95 1.00
           10    549      11.86 0.006     121.95    0.100     97.48        1.161 0.95 1.00
           10    550      32.40 0.016     121.95    0.100     97.48        0.873 0.95 1.00
           10    551     169.11 0.036      91.46    0.100     97.48        0.614 0.95 1.00
           10    552    3425.78 0.272       9.15    0.100     97.48        0.700 0.95 1.00
           10    553       7.59 0.006     121.95    0.100     63.29        1.160 0.95 1.00
           10    554      18.59 0.015     121.95    0.100     63.29        0.885 0.95 1.00
           10    555     114.48 0.036      91.46    0.100     63.29        0.601 0.95 1.00
           10    556    1108.83 0.150      24.39    0.100     63.29        0.400 0.95 1.00
           10    557      49.25 0.005     121.95    0.100     74.86        1.237 0.95 1.00
           10    558     545.47 0.114      60.98    0.100     74.86        0.440 0.95 1.00
           10    559      63.62 0.015     121.95    0.100     74.86        0.898 0.95 1.00
           10    560     199.27 0.034      91.46    0.100     74.86        0.630 0.95 1.00
           10    561    1491.80 0.142      24.39    0.100     63.29        0.471 0.95 1.00
           10    562     112.74 0.015     121.95    0.100     63.29        0.910 0.95 1.00
           10    563     388.25 0.035      91.46    0.100     63.29        0.666 0.95 1.00
           10    564      75.01 0.005     121.95    0.100     63.29        1.244 0.95 1.00
           10    565      10.71 0.006     121.95    0.100     74.86        1.161 0.95 1.00
           10    566      26.31 0.016     121.95    0.100     74.86        0.871 0.95 1.00
           10    567     124.26 0.036      91.46    0.100     74.86        0.603 0.95 1.00
           10    568    1003.04 0.195      18.29    0.100     74.86        0.343 0.95 1.00
           10    569      21.15 0.037      91.46    0.100     60.00        0.571 0.95 1.00
           10    570       2.75 0.003     121.95    0.100     60.00        1.426 0.95 1.00
           10    571       4.25 0.015     121.95    0.100     60.00        0.881 0.95 1.00
           10    572    1090.92 0.268       9.15    0.100     60.00        0.307 0.95 1.00
           10    573    1338.11 0.205      15.24    0.100     73.00        0.389 0.95 1.00
           10    574      10.51 0.006     121.95    0.100     73.00        1.161 0.95 1.00
           10    575      22.40 0.015     121.95    0.100     73.00        0.887 0.95 1.00
           10    576      96.26 0.036      91.46    0.100     73.00        0.596 0.95 1.00
           10    577    1237.36 0.194      18.29    0.100     73.00        0.386 0.95 1.00
           10    578      43.55 0.016     121.95    0.100     73.00        0.876 0.95 1.00
           10    579     172.84 0.036      91.46    0.100     73.00        0.614 0.95 1.00
           10    580      17.02 0.006     121.95    0.100     73.00        1.163 0.95 1.00
           10    581     192.37 0.036      91.46    0.100     60.00        0.619 0.95 1.00
           10    582      39.94 0.016     121.95    0.100     60.00        0.875 0.95 1.00
           10    583      14.15 0.007     121.95    0.100     60.00        1.110 0.95 1.00
           10    584    1335.11 0.195      18.29    0.100     60.00        0.403 0.95 1.00
           10    585    1184.53 0.311       9.15    0.100     73.00        0.321 0.95 1.00
           10    586       2.01 0.007     121.95    0.100     73.00        1.106 0.95 1.00
           10    587      25.67 0.037      91.46    0.100     73.00        0.573 0.95 1.00
           10    588       5.13 0.015     121.95    0.100     73.00        0.881 0.95 1.00
           10    589     106.67 0.015     121.95    0.300     72.00        1.729 0.95 1.00
           10    590      39.79 0.006     121.95    0.300     72.00        2.249 0.95 1.00
           10    591     622.13 0.037      91.46    0.300     72.00        1.230 0.95 1.00
           10    592    2716.41 0.127      24.39    0.300     72.00        0.849 0.95 1.00
           10    593    6693.01 0.146      24.39    0.300     59.00        1.445 0.95 1.00
           10    594     105.42 0.006     121.95    0.300     59.00        2.266 0.95 1.00
           10    595     232.18 0.015     121.95    0.300     59.00        1.758 0.95 1.00
           10    596    1014.46 0.036      91.46    0.300     59.00        1.314 0.95 1.00
           10    597      70.98 0.006     121.95    0.150     69.00        1.497 0.95 1.00
           10    598   15567.76 0.184      18.29    0.150     69.00        2.510 0.95 1.00
           10    599     143.88 0.015     121.95    0.150     69.00        1.160 0.95 1.00
           10    600     858.05 0.037      91.46    0.150     69.00        0.905 0.95 1.00
           10    601    4683.94 0.136      24.39    0.150     79.00        1.039 0.95 1.00
           10    602     363.79 0.015     121.95    0.150     79.00        1.209 0.95 1.00
           10    603     220.91 0.006     121.95    0.150     79.00        1.532 0.95 1.00
           10    604    1234.95 0.035      91.46    0.150     79.00        0.987 0.95 1.00
           10    605     934.93 0.036      91.46    0.150     69.00        0.925 0.95 1.00
           10    606   10485.43 0.176      18.29    0.150     69.00        1.828 0.95 1.00
           10    607     215.78 0.015     121.95    0.150     69.00        1.176 0.95 1.00
           10    608     104.71 0.006     121.95    0.150     69.00        1.505 0.95 1.00
           10    609     278.51 0.036      91.46    0.150     79.00        0.795 0.95 1.00
           10    610    7064.56 0.279       9.15    0.150     79.00        1.271 0.95 1.00
           10    611      27.98 0.005     121.95    0.150     79.00        1.568 0.95 1.00
           10    612      45.66 0.016     121.95    0.150     79.00        1.114 0.95 1.00
           11    613     107.82 0.016     121.95    0.100     59.00        0.881 0.95 1.00
           11    614      48.09 0.005     121.95    0.100     59.00        1.231 0.95 1.00
           11    615    4413.06 0.127      24.39    0.100     59.00        0.667 0.95 1.00
           11    616     633.34 0.036      91.46    0.100     59.00        0.659 0.95 1.00
           11    617    1117.95 0.036      91.46    0.100     59.00        0.716 0.95 1.00
           11    618      95.60 0.006     121.95    0.100     59.00        1.174 0.95 1.00
           11    619     210.21 0.016     121.95    0.100     59.00        0.896 0.95 1.00
           11    620    5488.73 0.126      24.39    0.100     59.00        0.771 0.95 1.00
           11    621     159.60 0.006     121.95    0.100     72.00        1.184 0.95 1.00
           11    622     795.27 0.035      91.46    0.100     72.00        0.683 0.95 1.00
           11    623     241.63 0.015     121.95    0.100     72.00        0.918 0.95 1.00
           11    624    2803.90 0.135      24.39    0.100     72.00        0.503 0.95 1.00
           11    625   13844.82 0.223      15.24    0.100     66.00        1.447 0.95 1.00
           11    626     939.73 0.036      91.46    0.100     66.00        0.696 0.95 1.00
           11    627     106.94 0.006     121.95    0.100     66.00        1.176 0.95 1.00
           11    628     209.22 0.015     121.95    0.100     66.00        0.913 0.95 1.00
           11    629      54.95 0.004     121.95    0.100     66.00        1.317 0.95 1.00
           11    630   43699.59 0.353       9.15    0.100     66.00        3.722 0.95 1.00
           11    631      95.97 0.015     121.95    0.100     66.00        0.896 0.95 1.00
           11    632     488.24 0.037      91.46    0.100     66.00        0.636 0.95 1.00
           11    633     192.70 0.015     121.95    0.100     77.00        0.911 0.95 1.00
           11    634   22033.12 0.303       9.15    0.100     77.00        2.080 0.95 1.00
           11    635     813.49 0.036      91.46    0.100     77.00        0.681 0.95 1.00
           11    636     128.47 0.005     121.95    0.100     77.00        1.244 0.95 1.00
           11    637     522.52 0.014     121.95    0.010     92.00        0.301 0.95 1.00
           11    638   10203.49 0.001     121.95    0.010     92.00        1.520 0.95 1.00
           11    639     305.58 0.124      24.39    0.010     92.00        0.092 0.95 1.00
           11    640     549.91 0.031      91.46    0.010     92.00        0.229 0.95 1.00
           11    641      92.02 0.006     121.95    0.100     97.22        1.174 0.95 1.00
           11    642    1060.25 0.036      91.46    0.100     97.22        0.710 0.95 1.00
           11    643     201.59 0.015     121.95    0.100     97.22        0.912 0.95 1.00
           11    644    4996.88 0.119      60.98    0.100     97.22        0.859 0.95 1.00
           11    645     109.00 0.015     121.95    0.100     97.22        0.898 0.95 1.00
           11    646    3239.80 0.128      24.39    0.100     97.22        0.550 0.95 1.00
           11    647     650.03 0.036      91.46    0.100     97.22        0.661 0.95 1.00
           11    648      49.72 0.006     121.95    0.100     97.22        1.167 0.95 1.00
           11    649     207.83 0.037      91.46    0.100     97.22        0.598 0.95 1.00
           11    650    2561.51 0.243      15.24    0.100     97.22        0.414 0.95 1.00
           11    651      19.89 0.006     121.95    0.100     97.22        1.161 0.95 1.00
           11    652      33.93 0.015     121.95    0.100     97.22        0.886 0.95 1.00
           11    653     119.02 0.016     121.95    0.100     63.29        0.883 0.95 1.00
           11    654      47.02 0.006     121.95    0.100     63.29        1.166 0.95 1.00
           11    655     595.58 0.036      91.46    0.100     63.29        0.654 0.95 1.00
           11    656    2071.63 0.108      60.98    0.100     63.29        0.574 0.95 1.00
           11    657     105.06 0.015     121.95    0.100     63.29        0.898 0.95 1.00
           11    658     458.32 0.035      91.46    0.100     63.29        0.641 0.95 1.00
           11    659     687.38 0.085      60.98    0.100     63.29        0.441 0.95 1.00
           11    660      53.57 0.006     121.95    0.100     63.29        1.167 0.95 1.00
           11    661      18.09 0.006     121.95    0.100     63.29        1.161 0.95 1.00
           11    662      38.23 0.016     121.95    0.100     63.29        0.870 0.95 1.00
           11    663     232.86 0.037      91.46    0.100     63.29        0.602 0.95 1.00
           11    664    1003.78 0.110      60.98    0.100     63.29        0.453 0.95 1.00
           11    665     119.14 0.006     121.95    0.150     69.00        1.497 0.95 1.00
           11    666    1643.56 0.037      91.46    0.150     69.00        0.926 0.95 1.00
           11    667   11341.50 0.127      24.39    0.150     69.00        1.346 0.95 1.00
           11    668     262.06 0.015     121.95    0.150     69.00        1.163 0.95 1.00
           11    669     242.96 0.006     121.95    0.150     69.00        1.515 0.95 1.00
           11    670    2872.57 0.036      91.46    0.150     69.00        1.063 0.95 1.00
           11    671     531.35 0.015     121.95    0.150     69.00        1.198 0.95 1.00
           11    672   13749.81 0.125      24.39    0.150     69.00        1.553 0.95 1.00
           11    673    1941.89 0.035      91.46    0.150     79.00        0.971 0.95 1.00
           11    674     596.09 0.015     121.95    0.150     79.00        1.206 0.95 1.00
           11    675    6843.32 0.135      24.39    0.150     79.00        0.941 0.95 1.00
           11    676     380.81 0.006     121.95    0.150     79.00        1.533 0.95 1.00
           12    677      51.82 0.007     121.95    0.100     59.00        1.117 0.95 1.00
           12    678     122.46 0.015     121.95    0.100     59.00        0.904 0.95 1.00
           12    679   10151.50 0.176      18.29    0.100     59.00        1.348 0.95 1.00
           12    680     676.96 0.037      91.46    0.100     59.00        0.678 0.95 1.00
           12    681      91.59 0.015     121.95    0.100     72.00        0.899 0.95 1.00
           12    682     480.65 0.036      91.46    0.100     72.00        0.653 0.95 1.00
           12    683      44.81 0.006     121.95    0.100     72.00        1.168 0.95 1.00
           12    684    4038.18 0.170      18.29    0.100     72.00        0.678 0.95 1.00
           12    685      58.44 0.006     121.95    0.100     59.00        1.170 0.95 1.00
           12    686     438.29 0.036      91.46    0.100     59.00        0.646 0.95 1.00
           12    687      97.54 0.015     121.95    0.100     59.00        0.900 0.95 1.00
           12    688    6526.18 0.203      15.24    0.100     59.00        0.940 0.95 1.00
           12    689      68.61 0.006     121.95    0.100     66.00        1.172 0.95 1.00
           12    690     155.17 0.016     121.95    0.100     66.00        0.893 0.95 1.00
           12    691   51579.12 0.257       9.15    0.100     66.00        5.113 0.95 1.00
           12    692    1001.79 0.037      91.46    0.100     66.00        0.724 0.95 1.00
           12    693    1788.50 0.036      91.46    0.100     66.00        0.834 0.95 1.00
           12    694   92258.84 0.321       9.15    0.100     66.00        8.446 0.95 1.00
           12    695     249.35 0.006     121.95    0.100     66.00        1.204 0.95 1.00
           12    696     413.47 0.015     121.95    0.100     66.00        0.953 0.95 1.00
           12    697   51734.49 0.351       9.15    0.100     66.00        5.119 0.95 1.00
           12    698     585.62 0.036      91.46    0.100     66.00        0.669 0.95 1.00
           12    699     123.28 0.015     121.95    0.100     66.00        0.905 0.95 1.00
           12    700      79.24 0.006     121.95    0.100     66.00        1.174 0.95 1.00
           12    701     314.96 0.015     121.95    0.100     77.00        0.937 0.95 1.00
           12    702  136435.23 0.351       9.15    0.100     77.00       11.862 0.95 1.00
           12    703    1711.46 0.036      91.46    0.100     77.00        0.824 0.95 1.00
           12    704     170.27 0.006     121.95    0.100     77.00        1.191 0.95 1.00
           12    705     732.81 0.154      24.39    0.010     92.00        0.164 0.95 1.00
           12    706     298.89 0.034      91.46    0.010     92.00        0.201 0.95 1.00
           12    707     140.72 0.015     121.95    0.010     92.00        0.250 0.95 1.00
           12    708    1022.74 0.001     121.95    0.010     92.00        0.660 0.95 1.00
           12    709    1273.57 0.137      24.39    0.010     92.00        0.241 0.95 1.00
           12    710     669.95 0.033      91.46    0.010     92.00        0.259 0.95 1.00
           12    711    6992.24 0.001     121.95    0.010     92.00        1.373 0.95 1.00
           12    712     456.39 0.014     121.95    0.010     92.00        0.306 0.95 1.00
           12    713      33.72 0.006     121.95    0.100     97.22        1.165 0.95 1.00
           12    714    7071.93 0.191      18.29    0.100     97.22        1.016 0.95 1.00
           12    715     473.99 0.037      91.46    0.100     97.22        0.647 0.95 1.00
           12    716      81.02 0.016     121.95    0.100     97.22        0.880 0.95 1.00
           12    717      94.44 0.006     121.95    0.100     97.22        1.177 0.95 1.00
           12    718     194.53 0.015     121.95    0.100     97.22        0.917 0.95 1.00
           12    719     934.00 0.036      91.46    0.100     97.22        0.719 0.95 1.00
           12    720   10826.59 0.204      15.24    0.100     97.22        1.400 0.95 1.00
           12    721     314.45 0.036      91.46    0.100     97.48        0.627 0.95 1.00
           12    722      65.76 0.015     121.95    0.100     97.48        0.894 0.95 1.00
           12    723    7239.00 0.298       9.15    0.100     97.48        0.979 0.95 1.00
           12    724      35.04 0.006     121.95    0.100     97.48        1.166 0.95 1.00
           12    725    9346.12 0.157      24.39    0.300     59.00        1.449 0.95 1.00
           12    726     151.50 0.006     121.95    0.300     59.00        2.267 0.95 1.00
           12    727    1178.47 0.036      91.46    0.300     59.00        1.284 0.95 1.00
           12    728     311.71 0.015     121.95    0.300     59.00        1.757 0.95 1.00
           12    729    1949.57 0.153      24.39    0.300     59.00        0.609 0.95 1.00
           12    730      90.73 0.015     121.95    0.300     59.00        1.719 0.95 1.00
           12    731     320.81 0.036      91.46    0.300     59.00        1.159 0.95 1.00
           12    732      97.24 0.005     121.95    0.300     59.00        2.383 0.95 1.00
           12    733    1359.22 0.037      91.46    0.150     69.00        0.928 0.95 1.00
           12    734      95.31 0.006     121.95    0.150     69.00        1.496 0.95 1.00
           12    735     232.98 0.015     121.95    0.150     69.00        1.166 0.95 1.00
           12    736   20337.13 0.176      18.29    0.150     69.00        2.401 0.95 1.00
           12    737    3415.89 0.036      91.46    0.150     69.00        1.193 0.95 1.00
           12    738     383.92 0.006     121.95    0.150     69.00        1.545 0.95 1.00
           12    739   52121.98 0.200      15.24    0.150     69.00        5.228 0.95 1.00
           12    740     733.06 0.015     121.95    0.150     69.00        1.243 0.95 1.00
           12    741   14749.88 0.209      15.24    0.150     69.00        1.829 0.95 1.00
           12    742     935.12 0.036      91.46    0.150     69.00        0.876 0.95 1.00
           12    743     121.91 0.006     121.95    0.150     69.00        1.501 0.95 1.00
           12    744     206.99 0.015     121.95    0.150     69.00        1.161 0.95 1.00
           13    745     752.14 0.015     121.95    0.100     59.00        0.959 0.95 1.00
           13    746     358.25 0.006     121.95    0.100     59.00        1.199 0.95 1.00
           13    747    3681.25 0.036      91.46    0.100     59.00        0.891 0.95 1.00
           13    748   16319.70 0.114      60.98    0.100     59.00        1.503 0.95 1.00
           13    749   10717.84 0.129      24.39    0.100     72.00        0.997 0.95 1.00
           13    750     997.93 0.015     121.95    0.100     72.00        0.982 0.95 1.00
           13    751    3013.03 0.035      91.46    0.100     72.00        0.844 0.95 1.00
           13    752     720.46 0.006     121.95    0.100     72.00        1.234 0.95 1.00
           13    753  103442.97 0.379       9.15    0.100     66.00        6.045 0.95 1.00
           13    754     962.65 0.035      91.46    0.100     66.00        0.673 0.95 1.00
           13    755     274.28 0.015     121.95    0.100     66.00        0.912 0.95 1.00
           13    756     115.15 0.006     121.95    0.100     66.00        1.173 0.95 1.00
           13    757      51.24 0.006     121.95    0.100     66.00        1.165 0.95 1.00
           13    758     624.46 0.037      91.46    0.100     66.00        0.632 0.95 1.00
           13    759     108.81 0.015     121.95    0.100     66.00        0.894 0.95 1.00
           13    760   86097.80 0.385       9.15    0.100     66.00        5.158 0.95 1.00
           13    761   90406.74 0.455       9.15    0.100     77.00        5.377 0.95 1.00
           13    762      61.49 0.015     121.95    0.100     77.00        0.888 0.95 1.00
           13    763      37.93 0.005     121.95    0.100     77.00        1.228 0.95 1.00
           13    764     380.72 0.037      91.46    0.100     77.00        0.608 0.95 1.00
           13    765     255.04 0.006     121.95    0.100     97.22        1.188 0.95 1.00
           13    766     597.93 0.015     121.95    0.100     97.22        0.945 0.95 1.00
           13    767   12247.28 0.113      60.98    0.100     97.22        1.240 0.95 1.00
           13    768    3134.43 0.036      91.46    0.100     97.22        0.849 0.95 1.00
           13    769     300.26 0.006     121.95    0.100     97.48        1.193 0.95 1.00
           13    770    2188.64 0.035      91.46    0.100     97.48        0.778 0.95 1.00
           13    771     554.26 0.015     121.95    0.100     97.48        0.940 0.95 1.00
           13    772    6641.37 0.132      24.39    0.100     97.48        0.715 0.95 1.00
           13    773      28.40 0.007     121.95    0.300     59.00        2.140 0.95 1.00
           13    774      58.85 0.015     121.95    0.300     59.00        1.708 0.95 1.00
           13    775    2060.00 0.193      18.29    0.300     59.00        0.447 0.95 1.00
           13    776     155.62 0.035      91.46    0.300     59.00        1.129 0.95 1.00
           13    777     251.81 0.015     121.95    0.300     59.00        1.730 0.95 1.00
           13    778    1072.69 0.036      91.46    0.300     59.00        1.209 0.95 1.00
           13    779     205.49 0.006     121.95    0.300     59.00        2.263 0.95 1.00
           13    780    3666.39 0.102      60.98    0.300     59.00        0.952 0.95 1.00
           13    781     463.32 0.015     121.95    0.300     72.00        1.752 0.95 1.00
           13    782     467.42 0.006     121.95    0.300     72.00        2.290 0.95 1.00
           13    783    1625.67 0.097      60.98    0.300     72.00        0.798 0.95 1.00
           13    784    1095.12 0.034      91.46    0.300     72.00        1.230 0.95 1.00
           13    785    1014.53 0.006     121.95    0.150     69.00        1.580 0.95 1.00
           13    786   10563.08 0.036      91.46    0.150     69.00        1.537 0.95 1.00
           13    787    2099.34 0.015     121.95    0.150     69.00        1.318 0.95 1.00
           13    788   47435.85 0.114      60.98    0.150     69.00        3.423 0.95 1.00
           13    789   28351.91 0.129      24.39    0.150     79.00        2.149 0.95 1.00
           13    790    2456.22 0.015     121.95    0.150     79.00        1.347 0.95 1.00
           13    791    7874.06 0.035      91.46    0.150     79.00        1.359 0.95 1.00
           13    792    1811.61 0.006     121.95    0.150     79.00        1.649 0.95 1.00
           14    793     408.64 0.015     121.95    0.140     77.00        1.111 0.95 1.00
           14    794     554.13 0.031      91.46    0.140     77.00        0.775 0.95 1.00
           14    795     145.93 0.068      60.98    0.140     77.00        0.465 0.95 1.00
           14    796     289.84 0.006     121.95    0.140     77.00        1.442 0.95 1.00
           14    797     678.06 0.071      60.98    0.140     77.00        0.501 0.95 1.00
           14    798    1442.33 0.033      91.46    0.140     77.00        0.823 0.95 1.00
           14    799     642.54 0.015     121.95    0.140     77.00        1.129 0.95 1.00
           14    800     302.20 0.006     121.95    0.140     77.00        1.443 0.95 1.00
           14    801     566.49 0.068      60.98    0.140     77.00        0.499 0.95 1.00
           14    802     126.28 0.007     121.95    0.140     77.00        1.365 0.95 1.00
           14    803    1109.91 0.034      91.46    0.140     77.00        0.794 0.95 1.00
           14    804     348.57 0.015     121.95    0.140     77.00        1.107 0.95 1.00
           14    805     587.90 0.034      91.46    0.140     83.00        0.757 0.95 1.00
           14    806     122.76 0.006     121.95    0.140     83.00        1.428 0.95 1.00
           14    807     236.68 0.015     121.95    0.140     83.00        1.098 0.95 1.00
           14    808     296.17 0.069      60.98    0.140     83.00        0.476 0.95 1.00
           14    809     331.25 0.007     121.95    0.140     78.00        1.382 0.95 1.00
           14    810     582.26 0.015     121.95    0.140     78.00        1.124 0.95 1.00
           14    811    1301.29 0.033      91.46    0.140     78.00        0.813 0.95 1.00
           14    812     604.87 0.070      60.98    0.140     78.00        0.498 0.95 1.00
           14    813     965.46 0.005     121.95    0.140     89.00        1.572 0.95 1.00
           14    814     504.35 0.014     121.95    0.140     89.00        1.141 0.95 1.00
           14    815     451.99 0.031      91.46    0.140     89.00        0.767 0.95 1.00
           14    816     105.79 0.067      60.98    0.140     89.00        0.464 0.95 1.00
           14    817     735.28 0.015     121.95    0.140     85.00        1.136 0.95 1.00
           14    818     592.10 0.068      60.98    0.140     85.00        0.501 0.95 1.00
           14    819    1522.72 0.033      91.46    0.140     85.00        0.828 0.95 1.00
           14    820     655.38 0.005     121.95    0.140     85.00        1.550 0.95 1.00
           14    821    2188.12 0.006     121.95    0.100     66.00        1.313 0.95 1.00
           14    822   13651.91 0.036      91.46    0.100     66.00        1.342 0.95 1.00
[...]
           54   4066      42.54        31.000         0.048      0.000   0.020        1.000  0.050    0.000     0.000
           54   4067     321.16        31.000         0.048      0.000   0.020        1.000  0.050    0.000     0.000
           54   4068     739.93        31.000         0.048      0.000   0.020        1.000  0.050    0.000     0.000
           54   4069    1630.69        31.000         0.048      0.000   0.020        1.000  0.050    0.000     0.000
           54   4070     299.81        31.000         0.048      0.000   0.020        1.000  0.050    0.000     0.000
           54   4071     251.92        31.000         0.048      0.000   0.020        1.000  0.050    0.000     0.000
           54   4072    4412.88        31.000         0.048      0.000   0.020        1.000  0.050    0.000     0.000
           54   4073     150.01        31.000         0.048      0.000   0.020        1.000  0.050    0.000     0.000
           54   4074     386.57        31.000         0.048      0.000   0.020        1.000  0.050    0.000     0.000
           54   4075    1409.99        31.000         0.048      0.000   0.020        1.000  0.050    0.000     0.000
           54   4076     352.34        31.000         0.048      0.000   0.020        1.000  0.050    0.000     0.000
           54   4077    3213.54        31.000         0.048      0.000   0.020        1.000  0.050    0.000     0.000
           54   4078   23982.93        31.000         0.048      0.000   0.020        1.000  0.050    0.000     0.000
           54   4079     686.92        31.000         0.048      0.000   0.020        1.000  0.050    0.000     0.000
           54   4080    4572.59        31.000         0.048      0.000   0.020        1.000  0.050    0.000     0.000
           54   4081    2364.05        31.000         0.048      0.000   0.020        1.000  0.050    0.000     0.000
           54   4082     818.36        31.000         0.048      0.000   0.020        1.000  0.050    0.000     0.000
           54   4083     377.97        31.000         0.048      0.000   0.020        1.000  0.050    0.000     0.000
           54   4084    4793.92        31.000         0.048      0.000   0.020        1.000  0.050    0.000     0.000
           54   4085    2026.52        31.000         0.048      0.000   0.020        1.000  0.050    0.000     0.000
           54   4086    1014.70        31.000         0.048      0.000   0.020        1.000  0.050    0.000     0.000
           54   4087    5085.08        31.000         0.048      0.000   0.020        1.000  0.050    0.000     0.000
           54   4088     435.21        31.000         0.048      0.000   0.020        1.000  0.050    0.000     0.000
           54   4089    6621.64        31.000         0.048      0.000   0.020        1.000  0.050    0.000     0.000
           54   4090     981.11        31.000         0.048      0.000   0.020        1.000  0.050    0.000     0.000
           54   4091    3131.08        31.000         0.048      0.000   0.020        1.000  0.050    0.000     0.000
           55   4092     217.16        31.000         0.048      0.000   0.020        1.000  0.050    0.000     0.000
           55   4093     912.40        31.000         0.048      0.000   0.020        1.000  0.050    0.000     0.000
           55   4094     864.88        31.000         0.048      0.000   0.020        1.000  0.050    0.000     0.000
           55   4095    1224.52        31.000         0.048      0.000   0.020        1.000  0.050    0.000     0.000
           55   4096     547.69        31.000         0.048      0.000   0.020        1.000  0.050    0.000     0.000
           55   4097     317.94        31.000         0.048      0.000   0.020        1.000  0.050    0.000     0.000
           55   4098     766.68        31.000         0.048      0.000   0.020        1.000  0.050    0.000     0.000
           55   4099     603.39        31.000         0.048      0.000   0.020        1.000  0.050    0.000     0.000
           55   4100    4469.17        31.000         0.048      0.000   0.020        1.000  0.050    0.000     0.000
           55   4101    2136.22        31.000         0.048      0.000   0.020        1.000  0.050    0.000     0.000
           55   4102    1749.48        31.000         0.048      0.000   0.020        1.000  0.050    0.000     0.000
           55   4103     934.76        31.000         0.048      0.000   0.020        1.000  0.050    0.000     0.000
           55   4104    1463.99        31.000         0.048      0.000   0.020        1.000  0.050    0.000     0.000
           55   4105   58907.03        31.000         0.048      0.000   0.020        1.000  0.050    0.000     0.000
           55   4106    1620.75        31.000         0.048      0.000   0.020        1.000  0.050    0.000     0.000
           55   4107    6371.00        31.000         0.048      0.000   0.020        1.000  0.050    0.000     0.000
           55   4108   26836.22        31.000         0.048      0.000   0.020        1.000  0.050    0.000     0.000
           55   4109    7553.63        31.000         0.048      0.000   0.020        1.000  0.050    0.000     0.000
           55   4110   52562.34        31.000         0.048      0.000   0.020        1.000  0.050    0.000     0.000
           55   4111    3255.17        31.000         0.048      0.000   0.020        1.000  0.050    0.000     0.000
           55   4112     638.28        31.000         0.048      0.000   0.020        1.000  0.050    0.000     0.000
           55   4113    1497.38        31.000         0.048      0.000   0.020        1.000  0.050    0.000     0.000
           55   4114   47114.11        31.000         0.048      0.000   0.020        1.000  0.050    0.000     0.000
           55   4115     426.47        31.000         0.048      0.000   0.020        1.000  0.050    0.000     0.000
           55   4116   27702.98        31.000         0.048      0.000   0.020        1.000  0.050    0.000     0.000
           55   4117     652.13        31.000         0.048      0.000   0.020        1.000  0.050    0.000     0.000
           55   4118     423.80        31.000         0.048      0.000   0.020        1.000  0.050    0.000     0.000
           55   4119     137.32        31.000         0.048      0.000   0.020        1.000  0.050    0.000     0.000
           55   4120     762.50        31.000         0.048      0.000   0.020        1.000  0.050    0.000     0.000
           55   4121    1038.97        31.000         0.048      0.000   0.020        1.000  0.050    0.000     0.000
           55   4122     487.34        31.000         0.048      0.000   0.020        1.000  0.050    0.000     0.000
           55   4123     466.02        31.000         0.048      0.000   0.020        1.000  0.050    0.000     0.000
           55   4124     264.26        31.000         0.048      0.000   0.020        1.000  0.050    0.000     0.000
           55   4125    1383.21        31.000         0.048      0.000   0.020        1.000  0.050    0.000     0.000
           55   4126     326.86        31.000         0.048      0.000   0.020        1.000  0.050    0.000     0.000
           55   4127     902.59        31.000         0.048      0.000   0.020        1.000  0.050    0.000     0.000
           55   4128    1148.54        31.000         0.048      0.000   0.020        1.000  0.050    0.000     0.000
           55   4129    3812.72        31.000         0.048      0.000   0.020        1.000  0.050    0.000     0.000
           55   4130    2438.57        31.000         0.048      0.000   0.020        1.000  0.050    0.000     0.000
           55   4131    6224.99        31.000         0.048      0.000   0.020        1.000  0.050    0.000     0.000
           55   4132     359.08        31.000         0.048      0.000   0.020        1.000  0.050    0.000     0.000
           55   4133     610.48        31.000         0.048      0.000   0.020        1.000  0.050    0.000     0.000
           55   4134    1505.74        31.000         0.048      0.000   0.020        1.000  0.050    0.000     0.000
           55   4135     514.67        31.000         0.048      0.000   0.020        1.000  0.050    0.000     0.000
           55   4136     281.40        31.000         0.048      0.000   0.020        1.000  0.050    0.000     0.000
           55   4137    1079.78        31.000         0.048      0.000   0.020        1.000  0.050    0.000     0.000
           55   4138     192.31        31.000         0.048      0.000   0.020        1.000  0.050    0.000     0.000
           55   4139    3698.41        31.000         0.048      0.000   0.020        1.000  0.050    0.000     0.000
           55   4140     914.61        31.000         0.048      0.000   0.020        1.000  0.050    0.000     0.000
           55   4141     401.72        31.000         0.048      0.000   0.020        1.000  0.050    0.000     0.000
           55   4142    4274.51        31.000         0.048      0.000   0.020        1.000  0.050    0.000     0.000
           55   4143    3154.72        31.000         0.048      0.000   0.020        1.000  0.050    0.000     0.000
           55   4144    2117.11        31.000         0.048      0.000   0.020        1.000  0.050    0.000     0.000
           55   4145     577.13        31.000         0.048      0.000   0.020        1.000  0.050    0.000     0.000
           55   4146     462.26        31.000         0.048      0.000   0.020        1.000  0.050    0.000     0.000
           55   4147     771.14        31.000         0.048      0.000   0.020        1.000  0.050    0.000     0.000
           55   4148    1130.31        31.000         0.048      0.000   0.020        1.000  0.050    0.000     0.000
           55   4149     353.40        31.000         0.048      0.000   0.020        1.000  0.050    0.000     0.000
           55   4150     348.47        31.000         0.048      0.000   0.020        1.000  0.050    0.000     0.000
           55   4151    4410.09        31.000         0.048      0.000   0.020        1.000  0.050    0.000     0.000
           55   4152     753.48        31.000         0.048      0.000   0.020        1.000  0.050    0.000     0.000
           55   4153    1787.85        31.000         0.048      0.000   0.020        1.000  0.050    0.000     0.000
           55   4154    5677.40        31.000         0.048      0.000   0.020        1.000  0.050    0.000     0.000
           55   4155    7082.31        31.000         0.048      0.000   0.020        1.000  0.050    0.000     0.000
           55   4156     847.74        31.000         0.048      0.000   0.020        1.000  0.050    0.000     0.000
           55   4157     399.61        31.000         0.048      0.000   0.020        1.000  0.050    0.000     0.000
           55   4158     571.45        31.000         0.048      0.000   0.020        1.000  0.050    0.000     0.000
           55   4159     752.78        31.000         0.048      0.000   0.020        1.000  0.050    0.000     0.000
           55   4160    2921.73        31.000         0.048      0.000   0.020        1.000  0.050    0.000     0.000
           55   4161    1070.25        31.000         0.048      0.000   0.020        1.000  0.050    0.000     0.000
           55   4162     327.10        31.000         0.048      0.000   0.020        1.000  0.050    0.000     0.000
           55   4163     441.50        31.000         0.048      0.000   0.020        1.000  0.050    0.000     0.000
           55   4164     910.95        31.000         0.048      0.000   0.020        1.000  0.050    0.000     0.000
           55   4165     343.07        31.000         0.048      0.000   0.020        1.000  0.050    0.000     0.000
           55   4166    4817.97        31.000         0.048      0.000   0.020        1.000  0.050    0.000     0.000
           55   4167    3285.93        31.000         0.048      0.000   0.020        1.000  0.050    0.000     0.000
           55   4168    5364.58        31.000         0.048      0.000   0.020        1.000  0.050    0.000     0.000
           55   4169    2622.20        31.000         0.048      0.000   0.020        1.000  0.050    0.000     0.000
           55   4170    2205.16        31.000         0.048      0.000   0.020        1.000  0.050    0.000     0.000
           55   4171     867.98        31.000         0.048      0.000   0.020        1.000  0.050    0.000     0.000
           55   4172    8801.92        31.000         0.048      0.000   0.020        1.000  0.050    0.000     0.000
           55   4173    2166.56        31.000         0.048      0.000   0.020        1.000  0.050    0.000     0.000
           55   4174    7468.72        31.000         0.048      0.000   0.020        1.000  0.050    0.000     0.000
           55   4175    1553.74        31.000         0.048      0.000   0.020        1.000  0.050    0.000     0.000
           55   4176   34881.00        31.000         0.048      0.000   0.020        1.000  0.050    0.000     0.000
           55   4177   49058.82        31.000         0.048      0.000   0.020        1.000  0.050    0.000     0.000
           55   4178    6893.89        31.000         0.048      0.000   0.020        1.000  0.050    0.000     0.000
           55   4179   17549.31        31.000         0.048      0.000   0.020        1.000  0.050    0.000     0.000

         Tributary/Main Channel Characteristics
              |--------------Tributary--------------------|---------------------Main---------------------------|
          Sub  Length(km) Slope Width(m) Cond(mm/hr)     N Length(km) Slope Width(m) Depth(m) Cond(mm/hr)     N
            1      122.27 0.005   115.24      0.0000 0.014      24.63 0.000   115.24     2.60      0.0000 0.014
            2      227.73 0.003   119.00      0.0000 0.014     104.74 0.001   119.00     2.65      0.0000 0.014
            3      122.14 0.001   115.99      0.0000 0.014      30.97 0.001  1336.83    13.31      0.0000 0.014
            4       41.73 0.009    45.33      0.0000 0.014      13.89 0.001   221.44     4.01      0.0000 0.014
            5       25.50 0.010    27.37      0.0000 0.014      14.11 0.001   211.86     3.90      0.0000 0.014
            6       66.15 0.003    67.28      0.0000 0.014      46.33 0.003   207.63     3.85      0.0000 0.014
            7      100.63 0.001    92.81      0.0000 0.014      77.12 0.000  1323.15    13.22      0.0000 0.014
            8       75.51 0.016    91.31      0.0000 0.014      12.07 0.000    91.31     2.22      0.0000 0.014
            9       88.82 0.016    83.24      0.0000 0.014      54.69 0.003   132.38     2.85      0.0000 0.014
           10      311.48 0.003   139.56      0.0000 0.014     195.81 0.000   139.56     2.95      0.0000 0.014
           11      135.20 0.003   111.40      0.0000 0.014     131.23 0.001   301.60     4.93      0.0000 0.014
           12      417.55 0.002   215.98      0.0000 0.014      12.48 0.005   273.58     4.62      0.0000 0.014
           13      313.34 0.004   202.25      0.0000 0.014     198.30 0.002   202.25     3.78      0.0000 0.014
           14      107.12 0.001   170.89      0.0000 0.014      71.09 0.000  1313.66    13.16      0.0000 0.014
           15       66.66 0.002    57.30      0.0000 0.014      51.38 0.001   357.31     5.52      0.0000 0.014
           16       89.81 0.002    76.79      0.0000 0.014      85.87 0.000   319.74     5.13      0.0000 0.014
           17        5.12 0.012     4.20      0.0000 0.014       1.21 0.000   534.89     7.23      0.0000 0.014
           18      111.94 0.014   103.78      0.0000 0.014      53.85 0.000   383.96     5.80      0.0000 0.014
           19      101.68 0.002    87.09      0.0000 0.014      82.86 0.000   297.26     4.89      0.0000 0.014
           20       19.07 0.006    21.62      0.0000 0.014      13.26 0.000   299.52     4.91      0.0000 0.014
           21      139.11 0.003   132.12      0.0000 0.014      52.89 0.001   132.12     2.85      0.0000 0.014
           22       69.19 0.004    48.43      0.0000 0.014      18.85 0.000   351.16     5.46      0.0000 0.014
           23      155.89 0.010   115.38      0.0000 0.014      69.74 0.005   115.38     2.60      0.0000 0.014
           24      146.38 0.011   110.91      0.0000 0.014      70.49 0.000   557.87     7.43      0.0000 0.014
           25       64.35 0.002    50.20      0.0000 0.014      30.67 0.000   305.36     4.97      0.0000 0.014
           26      115.15 0.010    91.26      0.0000 0.014      25.81 0.000   257.10     4.44      0.0000 0.014
           27      274.80 0.005   210.31      0.0000 0.014     166.89 0.002   210.31     3.88      0.0000 0.014
           28        2.89 0.027   118.08      0.0000 0.014      81.94 0.000   797.07     9.43      0.0000 0.014
           29      218.83 0.001   174.55      0.0000 0.014     178.91 0.000   253.09     4.39      0.0000 0.014
           30      122.31 0.011   119.68      0.0000 0.014      35.34 0.001   119.68     2.66      0.0000 0.014
           31      144.18 0.006   129.49      0.0000 0.014      26.40 0.000   188.93     3.61      0.0000 0.014
           32      114.15 0.012   104.66      0.0000 0.014      64.81 0.004   228.57     4.10      0.0000 0.014
           33      165.25 0.001   124.41      0.0000 0.014     158.75 0.000   159.16     3.22      0.0000 0.014
           34       84.47 0.002    82.83      0.0000 0.014       2.69 0.001    82.83     2.09      0.0000 0.014
           35       73.51 0.002    81.81      0.0000 0.014      25.09 0.000   261.11     4.48      0.0000 0.014
           36      174.03 0.001   203.23      0.0000 0.014     127.82 0.000  1215.60    12.49      0.0000 0.014
           37      110.16 0.007   116.09      0.0000 0.014      67.59 0.003   237.76     4.21      0.0000 0.014
           38      208.90 0.001   122.89      0.0000 0.014     119.66 0.001   122.89     2.71      0.0000 0.014
           39      119.52 0.008   141.26      0.0000 0.014      40.32 0.002   141.26     2.97      0.0000 0.014
           40       29.22 0.007    22.35      0.0000 0.014      19.61 0.002   110.14     2.52      0.0000 0.014
           41       86.16 0.004    98.92      0.0000 0.014      14.58 0.000    98.92     2.35      0.0000 0.014
           42      130.91 0.001   125.19      0.0000 0.014      89.73 0.000   889.83    10.15      0.0000 0.014
           43      114.08 0.004   105.05      0.0000 0.014       5.24 0.000   904.91    10.26      0.0000 0.014
           44      144.99 0.006   105.44      0.0000 0.014      41.71 0.004   105.44     2.45      0.0000 0.014
           45      167.69 0.004   104.83      0.0000 0.014      34.49 0.000   104.83     2.44      0.0000 0.014
           46       49.74 0.009    52.12      0.0000 0.014      10.19 0.000   936.40    10.50      0.0000 0.014
           47      135.81 0.002    92.97      0.0000 0.014      69.35 0.000   917.10    10.35      0.0000 0.014
           48      152.18 0.003   121.15      0.0000 0.014     141.57 0.001   167.35     3.33      0.0000 0.014
           49       56.86 0.001    71.85      0.0000 0.014      26.82 0.000  1178.21    12.24      0.0000 0.014
           50      137.58 0.001   160.76      0.0000 0.014      82.64 0.000  1171.52    12.19      0.0000 0.014
           51      115.39 0.001   156.55      0.0000 0.014      23.94 0.001  1125.08    11.87      0.0000 0.014
           52      185.77 0.001   140.72      0.0000 0.014      70.69 0.000   234.06     4.17      0.0000 0.014
           53      234.47 0.002   272.62      0.0000 0.014     112.33 0.000  1099.67    11.69      0.0000 0.014
           54      206.08 0.001   139.11      0.0000 0.014      34.68 0.000   139.11     2.94      0.0000 0.014
           55      145.72 0.003   205.90      0.0000 0.014     112.92 0.000   980.71    10.83      0.0000 0.014
